CasosCEPEL/16barras_Lev.pwf
TITU
Sistema-Teste de 16 Barras - Caso Base - Carga Leve                             
DOPC IMPR
(Op) E (Op) E (Op) E (Op) E (Op) E (Op) E (Op) E (Op) E (Op) E (Op) E
QLIM L CREM L CTAP L STEP L NEWT L MOCT L MOCG L MOCF L RCVG L RMON L
9999
DBAR
(No) O TB(   nome   )G( V)( A)( Pg)( Qg)( Qn)( Qm)( Bc)( Pl)( Ql)( Sh)(A(Vf)
   1   1AGERADOR-1   A 970.521 200.-130.-180. 180.                     11000
   2    DBARRA-2     C 991-1.3                                         11036
   3    DBARRA-3     C1001-4.2                           26.  16. -90. 11041
   4    EBARRA-4     B1004-5.6                           58.  39.      21024
   5    EBARRA-5     B1007-4.8                           16.  11.      21028
   6    EBARRA-6     B 999-3.2                           10.   7.      21021
   7    EBARRA-7     B1014-4.9                            9.   8.      21025
   8    EBARRA-8     B1020 -6.                           21.  13.      21020
   9   1AC.SINCRONO  A 970 -6.   0. -39. -50.  70.                     21010
  10    DBARRA-10    C 975-6.8                           23.  16.      11021
  11    DBARRA-11    C 994-6.7                           22.  15. -30. 11034
  12    DBARRA-12    C1008 -6.                           56.  31.      11039
  13    DBARRA-13    C1007-6.3                           33.  19. -30. 11039
  14    FBARRA-14    A1010-5.7                           32.  21.      11010
  15    DBARRA-15    C1010-4.8                                         11010
  16   2AGERADOR-2   A 970  0. 108.-53.4-180. 180.                     21000
9999
DLIN
(De) O  (Pa)NcEP ( R% )( X% )(Mvar)(Tap)(Tmn)(Tmx)(Phs)( Bc)(Cn)(Ce)Ns
   1       2 1            1.5         1.                     520 572  
   2       3 1      .45  4.96  84.8                          300 330  
   2       3 2      .45  4.96  84.8                          300 330  
   3      12 1      .24  2.64 45.05                          300 330  
   3      14 1           8.33      .9742   .9  1.1       -14 165 18121
   3      15 1      .79  8.38 30.63                          200 220  
   3      15 2      .79  8.38 30.63                          200 220  
   4       5 1      .69  7.37 26.95                          200 220  
   4       5 2      .69  7.37 26.95                          200 220  
   4      15 1           6.67      .9991   .9  1.1       -15 300 33021
   5       6 1       .5  5.36  19.6                          200 220  
   6       7 1       .6  6.37 23.28                          200 220  
   6      16 1             5.         1.                     450 495  
   7       8 1      .47  5.03 18.38                          200 220  
   8       9 1           12.5         1.                     100 110  
  10       8 1            10.       .903   .9  1.1        -8 260 28621
  10      11 1      .34  3.72  63.6                          300 330  
  11      12 1      .39  4.34  74.2                          300 330  
  12      13 1      .22  2.48  42.4                          300 330  
  12      13 2      .22  2.48  42.4                          300 330  
9999
DGLT
(G (Vmn) (Vmx)
 A   .95  1.05
 C   .95  1.08
 B   .95  1.07
99
DARE
(Ar)    (Xchg)     (      Identificacao da area       ) (Xmin) (Xmax)
   1        0.     ****** AREA 1 *******                             
   2        0.     ****** AREA 2 *******                             
9999
DGBT
(G ( kV)
 A  13.8
 D  345.
 E  230.
 F  138.
99
DGGB
(G Co Es
 A  0  1
 D  0  1
 E  0  1
 F  0  1
99
FIM
